*HEADING
cubit(./example/results//finalMesh.inp): 07/25/2025: 16:30:48
version: 16.16.1
**
********************************** P A R T S **********************************
*PART, NAME=Part-Default
**
********************************** N O D E S **********************************
*NODE, NSET=ALLNODES
       1,    5.5400000000000000e+02,    4.3700000000000000e+02,    0.0000000000000000e+00
       2,    6.0000000000000000e+02,    4.3600000000000000e+02,    0.0000000000000000e+00
       3,    5.5981633960539511e+02,    4.4192949455185931e+02,    0.0000000000000000e+00
       4,    5.6612052372409823e+02,    4.4658436671066164e+02,    0.0000000000000000e+00
       5,    5.7269536233325186e+02,    4.5088109161497664e+02,    0.0000000000000000e+00
       6,    5.7801300787282344e+02,    4.5651217284968595e+02,    0.0000000000000000e+00
       7,    5.8332696227771703e+02,    4.6216031006023104e+02,    0.0000000000000000e+00
       8,    5.9089268719947472e+02,    4.6357187230862559e+02,    0.0000000000000000e+00
       9,    5.9370392100630033e+02,    4.5624358677990176e+02,    0.0000000000000000e+00
      10,    5.9398474500969212e+02,    4.4832631655077665e+02,    0.0000000000000000e+00
      11,    5.9430413337051664e+02,    4.4045054847413252e+02,    0.0000000000000000e+00
      12,    6.0000000000000000e+02,    1.0000000000000000e+00,    0.0000000000000000e+00
      13,    6.0000000000000000e+02,    4.2794444444444446e+02,    0.0000000000000000e+00
      14,    6.0000000000000000e+02,    4.1988888888888891e+02,    0.0000000000000000e+00
      15,    6.0000000000000000e+02,    4.1183333333333331e+02,    0.0000000000000000e+00
      16,    6.0000000000000000e+02,    4.0377777777777777e+02,    0.0000000000000000e+00
      17,    6.0000000000000000e+02,    3.9572222222222223e+02,    0.0000000000000000e+00
      18,    6.0000000000000000e+02,    3.8766666666666669e+02,    0.0000000000000000e+00
      19,    6.0000000000000000e+02,    3.7961111111111109e+02,    0.0000000000000000e+00
      20,    6.0000000000000000e+02,    3.7155555555555554e+02,    0.0000000000000000e+00
** ... 8636 like lines cut
**
********************************** E L E M E N T S ****************************
*ELEMENT, TYPE=STRI3, ELSET=C_phase1
       1,    3376,    5959,    4358
       2,    4239,    4655,    2849
       3,    4989,    2542,    4984
       4,    6249,    7046,    6527
       5,    6325,    4856,    6311
       6,    3824,    3989,    3126
       7,    4420,    3391,    4377
       8,    3207,    4939,    3882
       9,    3121,    2559,    2560
      10,    6330,    6553,    4872
      11,    3120,    3119,    5056
      12,    4861,    6320,    2615
      13,    4986,    2665,    4985
      14,    5566,    3371,    5567
      15,    4478,    4479,    2646
      16,    4186,    5772,    4188
      17,    4478,    2647,    5209
      18,    2490,    2491,    3942
      19,    4669,    2792,    4274
      20,    4978,    3565,    4977
** ... 8630 like lines cut
*ELEMENT, TYPE=STRI3, ELSET=C_phase2
    8651,    7393,    7389,    7404
    8652,    7406,    7403,    7415
    8653,    7405,    7388,    7390
    8654,    7403,    7406,    7413
    8655,    7411,    7393,    7404
    8656,    7402,    7411,    7404
    8657,    7402,    7414,    7411
    8658,    7412,    7395,    7415
    8659,    7409,    7410,    7399
    8660,    7412,    7403,    7407
    8661,    7408,    7409,    7398
    8662,    7410,    7400,    7399
    8663,    7407,    7397,    7396
    8664,    7397,    7407,    7408
    8665,    7405,    7406,    7415
    8666,    7407,    7403,    7414
    8667,    7400,    7410,    7401
    8668,    7401,    7404,    7389
    8669,    7394,    7388,    7405
    8670,    7405,    7390,    7406
** ... 20 like lines cut
*ELEMENT, TYPE=STRI3, ELSET=C_phase3
    8691,    7423,    7430,    7432
    8692,    7431,    7421,    7432
    8693,    7421,    7431,    7420
    8694,    7431,    7419,    7420
    8695,    7424,    7429,    7430
    8696,    7429,    7426,    7434
    8697,    7429,    7417,    7426
    8698,    7416,    7418,    7428
    8699,    7425,    7434,    7426
    8700,    7419,    7431,    7433
    8701,    7434,    7427,    7430
    8702,    7428,    7418,    7433
    8703,    7425,    7416,    7428
    8704,    7424,    7417,    7429
    8705,    7430,    7429,    7434
    8706,    7423,    7424,    7430
    8707,    7430,    7427,    7432
    8708,    7418,    7419,    7433
    8709,    7421,    7422,    7432
    8710,    7427,    7431,    7432
** ... 5 like lines cut
*ELEMENT, TYPE=STRI3, ELSET=C_phase4
    8716,    1843,    1858,    1844
    8717,    1857,    1855,    1845
    8718,    1850,    1853,    1851
    8719,    1836,    1852,    1843
    8720,    1838,    1852,    1836
    8721,    1852,    1838,    1839
    8722,    1853,    1847,    1859
    8723,    1841,    1842,    1851
    8724,    1854,    1840,    1841
    8725,    1851,    1859,    1849
    8726,    1837,    1850,    1842
    8727,    1855,    1846,    1845
    8728,    1839,    1856,    1852
    8729,    1848,    1850,    1837
    8730,    1848,    1853,    1850
    8731,    1851,    1854,    1841
    8732,    1851,    1842,    1850
    8733,    1849,    1856,    1854
    8734,    1844,    1858,    1857
    8735,    1847,    1853,    1848
** ... 13 like lines cut
*ELEMENT, TYPE=STRI3, ELSET=C_phase5
    8749,    1822,    1820,    1831
    8750,    1824,    1825,    1805
    8751,    1804,    1806,    1802
    8752,    1824,    1803,    1833
    8753,    1824,    1821,    1823
    8754,    1807,    1806,    1823
    8755,    1811,    1832,    1812
    8756,    1804,    1825,    1806
    8757,    1827,    1828,    1815
    8758,    1818,    1831,    1819
    8759,    1826,    1820,    1832
    8760,    1830,    1827,    1814
    8761,    1816,    1828,    1817
    8762,    1828,    1822,    1817
    8763,    1835,    1829,    1826
    8764,    1820,    1826,    1829
    8765,    1810,    1809,    1835
    8766,    1813,    1830,    1814
    8767,    1833,    1819,    1829
    8768,    1808,    1823,    1834
** ... 28 like lines cut
*ELEMENT, TYPE=STRI3, ELSET=C_phase6
    8797,    1790,    1759,    1758
    8798,    1784,    1779,    1767
    8799,    1774,    1783,    1797
    8800,    1780,    1792,    1757
    8801,    1767,    1764,    1784
    8802,    1774,    1775,    1783
    8803,    1788,    1761,    1786
    8804,    1762,    1788,    1763
    8805,    1775,    1756,    1782
    8806,    1757,    1781,    1780
    8807,    1777,    1780,    1795
    8808,    1755,    1781,    1757
    8809,    1796,    1778,    1798
    8810,    1793,    1781,    1765
    8811,    1790,    1799,    1787
    8812,    1772,    1785,    1794
    8813,    1791,    1794,    1777
    8814,    1785,    1772,    1773
    8815,    1776,    1783,    1800
    8816,    1762,    1761,    1788
** ... 51 like lines cut
*ELEMENT, TYPE=STRI3, ELSET=C_phase7
    8868,    1681,    1739,    1706
    8869,    1673,    1688,    1748
    8870,    1688,    1638,    1687
    8871,    1680,    1730,    1701
    8872,    1708,    1716,    1752
    8873,    1639,    1640,    1687
    8874,    1696,    1689,    1642
    8875,    1665,    1717,    1686
    8876,    1693,    1702,    1675
    8877,    1706,    1739,    1704
    8878,    1656,    1692,    1697
    8879,    1649,    1700,    1731
    8880,    1692,    1656,    1685
    8881,    1698,    1655,    1697
    8882,    1652,    1725,    1651
    8883,    1700,    1714,    1722
    8884,    1655,    1698,    1654
    8885,    1700,    1650,    1726
    8886,    1657,    1684,    1685
    8887,    1668,    1718,    1658
** ... 184 like lines cut
*ELEMENT, TYPE=STRI3, ELSET=C_phase8
    9072,    1614,    1599,    1598
    9073,    1598,    1597,    1612
    9074,    1611,    1581,    1634
    9075,    1621,    1620,    1582
    9076,    1620,    1628,    1583
    9077,    1584,    1583,    1628
    9078,    1610,    1629,    1623
    9079,    1610,    1587,    1586
    9080,    1601,    1600,    1613
    9081,    1589,    1597,    1579
    9082,    1614,    1632,    1599
    9083,    1578,    1634,    1580
    9084,    1603,    1611,    1617
    9085,    1592,    1611,    1591
    9086,    1593,    1594,    1615
    9087,    1605,    1626,    1623
    9088,    1614,    1624,    1607
    9089,    1588,    1625,    1622
    9090,    1610,    1625,    1587
    9091,    1601,    1608,    1590
** ... 68 like lines cut
*ELEMENT, TYPE=STRI3, ELSET=C_phase9
    9160,    2362,    2396,    2442
    9161,    2393,    2272,    2446
    9162,    2327,    2324,    2385
    9163,    2298,    2299,    2388
    9164,    2401,    2453,    2331
    9165,    2363,    2444,    2279
    9166,    2274,    2275,    2446
    9167,    2265,    2443,    2445
    9168,    2266,    2396,    2443
    9169,    2269,    2395,    2268
    9170,    2395,    2398,    2268
    9171,    2394,    2393,    2364
    9172,    2270,    2271,    2394
    9173,    2446,    2275,    2397
    9174,    2279,    2444,    2278
    9175,    2268,    2398,    2267
    9176,    2277,    2442,    2276
    9177,    2349,    2350,    2373
    9178,    2415,    2417,    2472
    9179,    2328,    2377,    2329
** ... 323 like lines cut
*ELEMENT, TYPE=STRI3, ELSET=C_phase10
    9503,    1448,    1487,    1495
    9504,    1452,    1508,    1488
    9505,    1514,    1519,    1473
    9506,    1498,    1501,    1472
    9507,    1486,    1450,    1451
    9508,    1488,    1490,    1486
    9509,    1480,    1476,    1509
    9510,    1444,    1446,    1483
    9511,    1447,    1448,    1495
    9512,    1495,    1487,    1506
    9513,    1455,    1483,    1482
    9514,    1456,    1482,    1499
    9515,    1500,    1494,    1458
    9516,    1494,    1493,    1459
    9517,    1504,    1460,    1493
    9518,    1461,    1481,    1462
    9519,    1481,    1463,    1462
    9520,    1458,    1494,    1459
    9521,    1498,    1513,    1474
    9522,    1465,    1464,    1485
** ... 103 like lines cut
*ELEMENT, TYPE=STRI3, ELSET=C_phase11
    9626,    1392,    1398,    1352
    9627,    1415,    1427,    1439
    9628,    1423,    1356,    1425
    9629,    1381,    1407,    1382
    9630,    1398,    1353,    1350
    9631,    1423,    1425,    1426
    9632,    1356,    1355,    1425
    9633,    1384,    1401,    1396
    9634,    1401,    1441,    1405
    9635,    1369,    1394,    1370
    9636,    1411,    1415,    1439
    9637,    1373,    1412,    1413
    9638,    1414,    1363,    1395
    9639,    1395,    1362,    1440
    9640,    1368,    1367,    1429
    9641,    1429,    1367,    1427
    9642,    1413,    1440,    1387
    9643,    1412,    1372,    1416
    9644,    1360,    1359,    1424
    9645,    1395,    1413,    1386
** ... 133 like lines cut
*ELEMENT, TYPE=STRI3, ELSET=C_phase12
    9779,    7460,    7466,    7468
    9780,    7447,    7463,    7465
    9781,    7459,    7455,    7458
    9782,    7459,    7458,    7467
    9783,    7440,    7461,    7439
    9784,    7460,    7439,    7466
    9785,    7462,    7457,    7463
    9786,    7444,    7464,    7443
    9787,    7446,    7447,    7465
    9788,    7464,    7444,    7445
    9789,    7463,    7447,    7448
    9790,    7457,    7462,    7472
    9791,    7462,    7441,    7472
    9792,    7461,    7449,    7450
    9793,    7451,    7452,    7468
    9794,    7439,    7460,    7438
    9795,    7468,    7452,    7469
    9796,    7455,    7459,    7436
    9797,    7437,    7458,    7435
    9798,    7438,    7460,    7470
** ... 33 like lines cut
*ELEMENT, TYPE=STRI3, ELSET=C_phase13
    9832,    7316,    7338,    7315
    9833,    7297,    7298,    7322
    9834,    7303,    7325,    7302
    9835,    7301,    7337,    7300
    9836,    7311,    7312,    7332
    9837,    7320,    7326,    7328
    9838,    7333,    7342,    7317
    9839,    7305,    7329,    7328
    9840,    7306,    7329,    7305
    9841,    7328,    7329,    7320
    9842,    7321,    7308,    7309
    9843,    7309,    7331,    7321
    9844,    7310,    7332,    7331
    9845,    7315,    7334,    7314
    9846,    7332,    7323,    7318
    9847,    7313,    7327,    7323
    9848,    7334,    7327,    7314
    9849,    7322,    7338,    7316
    9850,    7301,    7302,    7324
    9851,    7302,    7325,    7324
** ... 54 like lines cut
*ELEMENT, TYPE=STRI3, ELSET=C_phase14
    9906,    7678,    7682,    7661
    9907,    7663,    7685,    7679
    9908,    7662,    7658,    7675
    9909,    7686,    7681,    7676
    9910,    7687,    7683,    7668
    9911,    7680,    7681,    7667
    9912,    7676,    7680,    7679
    9913,    7675,    7685,    7662
    9914,    7684,    7683,    7677
    9915,    7684,    7691,    7671
    9916,    7673,    7690,    7678
    9917,    7673,    7678,    7659
    9918,    7678,    7688,    7682
    9919,    7678,    7690,    7688
    9920,    7670,    7669,    7684
    9921,    7675,    7658,    7660
    9922,    7675,    7682,    7689
    9923,    7662,    7685,    7663
    9924,    7679,    7680,    7664
    9925,    7685,    7689,    7676
** ... 30 like lines cut
*ELEMENT, TYPE=STRI3, ELSET=C_phase15
    9956,    1306,    1336,    1317
    9957,    1266,    1267,    1316
    9958,    1307,    1270,    1316
    9959,    1268,    1299,    1309
    9960,    1269,    1264,    1266
    9961,    1285,    1284,    1313
    9962,    1270,    1307,    1336
    9963,    1315,    1273,    1318
    9964,    1276,    1331,    1277
    9965,    1343,    1298,    1310
    9966,    1319,    1301,    1331
    9967,    1273,    1272,    1318
    9968,    1329,    1326,    1279
    9969,    1319,    1275,    1337
    9970,    1273,    1315,    1274
    9971,    1286,    1313,    1332
    9972,    1313,    1283,    1314
    9973,    1284,    1283,    1313
    9974,    1286,    1285,    1313
    9975,    1291,    1290,    1325
** ... 116 like lines cut
*ELEMENT, TYPE=STRI3, ELSET=C_phase16
   10092,    1222,    1246,    1250
   10093,    1240,    1255,    1258
   10094,    1215,    1217,    1245
   10095,    1238,    1263,    1250
   10096,    1250,    1251,    1221
   10097,    1243,    1253,    1239
   10098,    1252,    1216,    1237
   10099,    1228,    1227,    1261
   10100,    1259,    1218,    1258
   10101,    1241,    1260,    1245
   10102,    1226,    1225,    1245
   10103,    1240,    1256,    1255
   10104,    1229,    1228,    1255
   10105,    1243,    1244,    1231
   10106,    1249,    1252,    1239
   10107,    1249,    1262,    1224
   10108,    1244,    1233,    1232
   10109,    1246,    1262,    1253
   10110,    1234,    1242,    1235
   10111,    1233,    1244,    1254
** ... 53 like lines cut
*ELEMENT, TYPE=STRI3, ELSET=C_phase17
   10165,    7280,    7251,    7252
   10166,    7276,    7251,    7280
   10167,    7260,    7279,    7259
   10168,    7258,    7290,    7257
   10169,    7257,    7290,    7289
   10170,    7279,    7288,    7291
   10171,    7283,    7284,    7272
   10172,    7261,    7279,    7260
   10173,    7287,    7268,    7269
   10174,    7290,    7258,    7291
   10175,    7264,    7285,    7263
   10176,    7270,    7271,    7278
   10177,    7272,    7295,    7293
   10178,    7286,    7295,    7272
   10179,    7275,    7277,    7287
   10180,    7268,    7277,    7267
   10181,    7253,    7254,    7280
   10182,    7276,    7278,    7271
   10183,    7272,    7282,    7283
   10184,    7263,    7285,    7288
** ... 49 like lines cut
*ELEMENT, TYPE=STRI3, ELSET=C_phase18
   10234,     909,    1065,    1180
   10235,    1072,    1169,    1064
   10236,    1001,    1048,    1049
   10237,    1083,     924,    1084
   10238,     946,    1114,    1112
   10239,     898,    1180,     900
   10240,     984,    1068,    1065
   10241,    1127,    1063,    1022
   10242,     997,    1107,    1059
   10243,    1017,    1204,    1176
   10244,     899,    1022,     964
   10245,    1002,    1019,    1020
   10246,     997,    1018,    1107
   10247,    1062,     905,    1018
   10248,     997,    1059,    1176
   10249,    1059,     902,    1067
   10250,    1089,     910,     911
   10251,    1131,    1089,     911
   10252,    1008,     912,    1088
   10253,    1022,    1063,     964
** ... 538 like lines cut
*ELEMENT, TYPE=STRI3, ELSET=C_phase19
   10792,     853,     852,     878
   10793,     833,     877,     831
   10794,     840,     897,     841
   10795,     893,     894,     847
   10796,     855,     874,     835
   10797,     875,     837,     878
   10798,     837,     836,     878
   10799,     879,     882,     885
   10800,     880,     883,     886
   10801,     884,     870,     881
   10802,     848,     883,     849
   10803,     844,     843,     881
   10804,     882,     839,     885
   10805,     842,     884,     843
   10806,     846,     845,     881
   10807,     879,     895,     896
   10808,     839,     838,     885
   10809,     877,     853,     878
   10810,     876,     877,     833
   10811,     834,     874,     876
** ... 74 like lines cut
*ELEMENT, TYPE=STRI3, ELSET=C_phase20
   10886,    7207,    7202,    7208
   10887,    7211,    7227,    7189
   10888,    7177,    7178,    7208
   10889,    7232,    7208,    7180
   10890,    7203,    7213,    7220
   10891,    7185,    7222,    7218
   10892,    7229,    7219,    7204
   10893,    7210,    7227,    7211
   10894,    7190,    7191,    7211
   10895,    7186,    7222,    7185
   10896,    7205,    7224,    7225
   10897,    7183,    7217,    7213
   10898,    7228,    7224,    7210
   10899,    7216,    7212,    7209
   10900,    7192,    7193,    7228
   10901,    7223,    7195,    7196
   10902,    7223,    7231,    7225
   10903,    7217,    7184,    7218
   10904,    7221,    7219,    7197
   10905,    7201,    7209,    7200
** ... 68 like lines cut
*ELEMENT, TYPE=STRI3, ELSET=C_phase21
   10974,    1544,    1554,    1543
   10975,    1553,    1542,    1543
   10976,    1560,    1573,    1561
   10977,    1544,    1545,    1555
   10978,    1546,    1556,    1545
   10979,    1554,    1544,    1555
   10980,    1557,    1556,    1546
   10981,    1558,    1548,    1559
   10982,    1570,    1571,    1577
   10983,    1553,    1540,    1542
   10984,    1547,    1557,    1546
   10985,    1554,    1553,    1543
   10986,    1556,    1555,    1545
   10987,    1548,    1558,    1547
   10988,    1558,    1557,    1547
   10989,    1548,    1549,    1559
   10990,    1575,    1549,    1576
   10991,    1573,    1560,    1575
   10992,    1574,    1572,    1573
   10993,    1567,    1566,    1569
** ... 25 like lines cut
*ELEMENT, TYPE=STRI3, ELSET=C_phase22
   11019,    1864,    2065,    1865
   11020,    1954,    2069,    2058
   11021,    1863,    1998,    2131
   11022,    1907,    1899,    2001
   11023,    1885,    1872,    1999
   11024,    1969,    2039,    2077
   11025,    2076,    2130,    2255
   11026,    2087,    1960,    2203
   11027,    1886,    2193,    1890
   11028,    1984,    2047,    2136
   11029,    2045,    2086,    1871
   11030,    2047,    2088,    1964
   11031,    1860,    1997,    1862
   11032,    1873,    2064,    1997
   11033,    2067,    1954,    2215
   11034,    2051,    1996,    1956
   11035,    1866,    2039,    1867
   11036,    1957,    1996,    2044
   11037,    1875,    2061,    2051
   11038,    1959,    1995,    2032
** ... 703 like lines cut
*ELEMENT, TYPE=STRI3, ELSET=C_phase23
   11742,    8265,    8267,    8158
   11743,    7694,    7692,    8263
   11744,    8262,    8263,    7769
   11745,    7768,    7998,    7779
   11746,    8502,    7896,    8672
   11747,    7745,    7744,    8140
   11748,    8030,    8029,    7951
   11749,    8261,    7985,    7939
   11750,    8230,    7940,    8121
   11751,    7696,    8229,    7697
   11752,    8094,    8475,    7885
   11753,    8489,    8681,    8552
   11754,    8222,    8220,    7927
   11755,    8121,    8505,    7895
   11756,    8098,    7698,    8117
   11757,    8111,    8479,    8474
   11758,    8081,    7706,    8222
   11759,    7703,    8223,    7704
   11760,    8314,    8163,    7709
   11761,    8667,    8470,    7961
** ... 1827 like lines cut
*ELEMENT, TYPE=STRI3, ELSET=C_phase24
   13589,    1532,    1533,    1537
   13590,    1523,    1534,    1522
   13591,    1524,    1533,    1523
   13592,    1527,    1528,    1536
   13593,    1527,    1536,    1539
   13594,    1528,    1535,    1536
   13595,    1521,    1531,    1535
   13596,    1533,    1529,    1534
   13597,    1533,    1524,    1537
   13598,    1529,    1533,    1530
   13599,    1538,    1530,    1533
   13600,    1536,    1532,    1539
   13601,    1529,    1520,    1534
   13602,    1532,    1538,    1533
   13603,    1523,    1533,    1534
   13604,    1534,    1520,    1522
   13605,    1535,    1531,    1538
   13606,    1528,    1521,    1535
   13607,    1532,    1537,    1539
   13608,    1532,    1536,    1535
** ... 6 like lines cut
*ELEMENT, TYPE=STRI3, ELSET=C_phase25
   13615,     264,     275,     563
   13616,     703,     705,     728
   13617,     274,      65,      12
   13618,     827,     757,     673
   13619,     634,     644,     779
   13620,     447,     515,      40
   13621,     472,     473,     219
   13622,      10,     277,     273
   13623,     163,     457,     281
   13624,     411,     412,     213
   13625,       9,     273,     271
   13626,     272,     521,       6
   13627,     273,     277,     235
   13628,       7,       8,     271
   13629,     276,     580,     409
   13630,     213,     412,     413
   13631,       2,     270,      11
   13632,     276,     270,     215
   13633,     164,     457,     163
   13634,     159,     290,     158
** ... 1474 like lines cut
*ELEMENT, TYPE=STRI3, ELSET=C_phase26
   15109,    7570,    7588,    7641
   15110,    7548,    7562,    7632
   15111,    7602,    7603,    7537
   15112,    7499,    7497,    7480
   15113,    7517,    7548,    7547
   15114,    7537,    7554,    7589
   15115,    7602,    7585,    7478
   15116,    7551,    7584,    7641
   15117,    7473,    7553,    7475
   15118,    7476,    7475,    7554
   15119,    7481,    7589,    7553
   15120,    7485,    7571,    7484
   15121,    7587,    7484,    7571
   15122,    7509,    7508,    7582
   15123,    7583,    7552,    7528
   15124,    7582,    7532,    7583
   15125,    7508,    7507,    7647
   15126,    7506,    7474,    7584
   15127,    7628,    7629,    7565
   15128,    7578,    7579,    7630
** ... 297 like lines cut
*ELEMENT, TYPE=STRI3, ELSET=C_phase27
   15426,    7244,    7248,    7243
   15427,    7237,    7238,    7247
   15428,    7236,    7250,    7248
   15429,    7245,    7247,    7249
   15430,    7239,    7249,    7247
   15431,    7243,    7248,    7246
   15432,    7246,    7249,    7242
   15433,    7248,    7250,    7245
   15434,    7240,    7249,    7239
   15435,    7246,    7248,    7245
   15436,    7242,    7249,    7241
   15437,    7242,    7243,    7246
   15438,    7237,    7247,    7250
   15439,    7247,    7238,    7239
   15440,    7248,    7244,    7235
   15441,    7235,    7236,    7248
   15442,    7241,    7249,    7240
   15443,    7245,    7249,    7246
   15444,    7237,    7250,    7236
   15445,    7250,    7247,    7245
**
********************************** P R O P E R T I E S ************************
*SHELL SECTION, ELSET=C_phase1, SECTION INTEGRATION=SIMPSON, MATERIAL=Default-Steel
1.0000000000000000e+00
*SHELL SECTION, ELSET=C_phase2, SECTION INTEGRATION=SIMPSON, MATERIAL=Default-Steel
1.0000000000000000e+00
*SHELL SECTION, ELSET=C_phase3, SECTION INTEGRATION=SIMPSON, MATERIAL=Default-Steel
1.0000000000000000e+00
*SHELL SECTION, ELSET=C_phase4, SECTION INTEGRATION=SIMPSON, MATERIAL=Default-Steel
1.0000000000000000e+00
*SHELL SECTION, ELSET=C_phase5, SECTION INTEGRATION=SIMPSON, MATERIAL=Default-Steel
1.0000000000000000e+00
*SHELL SECTION, ELSET=C_phase6, SECTION INTEGRATION=SIMPSON, MATERIAL=Default-Steel
1.0000000000000000e+00
*SHELL SECTION, ELSET=C_phase7, SECTION INTEGRATION=SIMPSON, MATERIAL=Default-Steel
1.0000000000000000e+00
*SHELL SECTION, ELSET=C_phase8, SECTION INTEGRATION=SIMPSON, MATERIAL=Default-Steel
1.0000000000000000e+00
*SHELL SECTION, ELSET=C_phase9, SECTION INTEGRATION=SIMPSON, MATERIAL=Default-Steel
1.0000000000000000e+00
*SHELL SECTION, ELSET=C_phase10, SECTION INTEGRATION=SIMPSON, MATERIAL=Default-Steel
1.0000000000000000e+00
*SHELL SECTION, ELSET=C_phase11, SECTION INTEGRATION=SIMPSON, MATERIAL=Default-Steel
1.0000000000000000e+00
*SHELL SECTION, ELSET=C_phase12, SECTION INTEGRATION=SIMPSON, MATERIAL=Default-Steel
1.0000000000000000e+00
*SHELL SECTION, ELSET=C_phase13, SECTION INTEGRATION=SIMPSON, MATERIAL=Default-Steel
1.0000000000000000e+00
*SHELL SECTION, ELSET=C_phase14, SECTION INTEGRATION=SIMPSON, MATERIAL=Default-Steel
1.0000000000000000e+00
*SHELL SECTION, ELSET=C_phase15, SECTION INTEGRATION=SIMPSON, MATERIAL=Default-Steel
1.0000000000000000e+00
*SHELL SECTION, ELSET=C_phase16, SECTION INTEGRATION=SIMPSON, MATERIAL=Default-Steel
1.0000000000000000e+00
*SHELL SECTION, ELSET=C_phase17, SECTION INTEGRATION=SIMPSON, MATERIAL=Default-Steel
1.0000000000000000e+00
*SHELL SECTION, ELSET=C_phase18, SECTION INTEGRATION=SIMPSON, MATERIAL=Default-Steel
1.0000000000000000e+00
*SHELL SECTION, ELSET=C_phase19, SECTION INTEGRATION=SIMPSON, MATERIAL=Default-Steel
1.0000000000000000e+00
*SHELL SECTION, ELSET=C_phase20, SECTION INTEGRATION=SIMPSON, MATERIAL=Default-Steel
1.0000000000000000e+00
** ... 14 like lines cut
**
*END PART
**
**
**
********************************** E N D   P A R T S **********************************
**
**
********************************** A S S E M B L Y ************************************
**
*ASSEMBLY, NAME=ASSEMBLY1
**
*INSTANCE, NAME=Part-Default_1, PART=Part-Default
*END INSTANCE
**
*END ASSEMBLY
**
**
**
*MATERIAL, NAME = Default-Steel
*ELASTIC, TYPE=ISOTROPIC
2.0680000000000000e+05, 2.8999999999999998e-01
*DENSITY
6.9999999999999999e-06
*CONDUCTIVITY,TYPE=ISO
4.4999999999999998e-02
*SPECIFIC HEAT
5.0000000000000000e+02
**
**
************************************** H I S T O R Y *************************************
**
*PREPRINT
**
**************************************** S T E P 1 ***************************************
*STEP,INC=100,NAME=Default Set
**
*STATIC
1, 1, 1e-05, 1
**
**
**
**
*END STEP
